
          12282121023D

 23  0  0     0  0            999 V2000
    0.9953   -0.2409   -0.2616 N   0  0  0  0  0  0  0  0  0  0  0  0
   -0.0107    0.1811    0.6866 C   0  0  0  0  0  0  0  0  0  0  0  0
   -1.3853   -0.4296    0.4088 C   0  0  0  0  0  0  0  0  0  0  0  0
   -2.4066    0.1061    0.8285 O   0  0  0  0  0  0  0  0  0  0  0  0
   -0.1237    1.6985    0.7568 C   0  0  0  0  0  0  0  0  0  0  0  0
   -0.5487    2.4394   -0.8517 S   0  0  0  0  0  0  0  0  0  0  0  0
    0.9496    0.2011   -1.1687 H   0  0  0  0  0  0  0  0  0  0  0  0
    0.3174   -0.1955    1.6584 H   0  0  0  0  0  0  0  0  0  0  0  0
   -0.8703    1.9848    1.4908 H   0  0  0  0  0  0  0  0  0  0  0  0
    0.8384    2.1231    1.0382 H   0  0  0  0  0  0  0  0  0  0  0  0
    2.2137   -0.7159    0.1647 C   0  0  0  0  0  0  0  0  0  0  0  0
    2.4288   -1.0326    1.3240 O   0  0  0  0  0  0  0  0  0  0  0  0
   -1.3628   -1.5839   -0.2902 N   0  0  0  0  0  0  0  0  0  0  0  0
   -2.5623   -2.3411   -0.5698 C   0  0  0  0  0  0  0  0  0  0  0  0
   -2.6732   -2.5104   -1.6388 H   0  0  0  0  0  0  0  0  0  0  0  0
   -2.5496   -3.3011   -0.0566 H   0  0  0  0  0  0  0  0  0  0  0  0
   -3.4040   -1.7580   -0.2094 H   0  0  0  0  0  0  0  0  0  0  0  0
   -0.4613   -1.9185   -0.5848 H   0  0  0  0  0  0  0  0  0  0  0  0
    3.2588   -0.8339   -0.9175 C   0  0  0  0  0  0  0  0  0  0  0  0
    3.9994   -0.0502   -0.7685 H   0  0  0  0  0  0  0  0  0  0  0  0
    2.8453   -0.7440   -1.9190 H   0  0  0  0  0  0  0  0  0  0  0  0
    3.7633   -1.7899   -0.8125 H   0  0  0  0  0  0  0  0  0  0  0  0
   -1.8126    1.9993   -0.8493 H   0  0  0  0  0  0  0  0  0  0  0  0
M  END
$$$$
