
          12282121313D

  5  0  0     0  0            999 V2000
    0.6870   -1.3881    0.0000 Te  0  0  0  0  0  0  0  0  0  0  0  0
   -0.8684   -0.8923    0.0000 H   0  0  0  0  0  0  0  0  0  0  0  0
    0.1933   -2.9475    0.0000 H   0  0  0  0  0  0  0  0  0  0  0  0
   -0.6989    2.7551    0.0000 H   0  0  0  0  0  0  0  0  0  0  0  0
    0.6870    2.4729    0.0000 Br  0  0  0  0  0  0  0  0  0  0  0  0
M  END
