48

C           -1.39370912681838       -2.33772886011298        1.81573292454493
C           -0.69752106544700       -3.45600969709632        2.27580522165332
C            0.69752106544700       -3.45600969709632        2.27580522165332
C            1.39370912681838       -2.33772886011298        1.81573292454493
C            0.70122881940877       -1.22202532492336        1.34910933817675
C           -0.70122881940877       -1.22202532492336        1.34910933817675
C            1.38857656747876        0.00000000000000        0.80473286324757
C           -1.38857656747876        0.00000000000000        0.80473286324757
C           -0.70122881940877        1.22202532492336        1.34910933817675
C            0.70122881940877        1.22202532492336        1.34910933817675
C           -1.39370912681838        2.33772886011298        1.81573292454493
C            1.39370912681838        2.33772886011298        1.81573292454493
C           -0.69752106544700        3.45600969709632        2.27580522165332
C            0.69752106544700        3.45600969709632        2.27580522165332
C           -1.39370912681838        2.33772886011298       -1.81573292454493
C           -0.69752106544700        3.45600969709632       -2.27580522165332
C            0.69752106544700        3.45600969709632       -2.27580522165332
C            1.39370912681838        2.33772886011298       -1.81573292454493
C            0.70122881940877        1.22202532492336       -1.34910933817675
C           -0.70122881940877        1.22202532492336       -1.34910933817675
C            1.38857656747876        0.00000000000000       -0.80473286324757
C           -1.38857656747876        0.00000000000000       -0.80473286324757
C           -0.70122881940877       -1.22202532492336       -1.34910933817675
C            0.70122881940877       -1.22202532492336       -1.34910933817675
C           -1.39370912681838       -2.33772886011298       -1.81573292454493
C            1.39370912681838       -2.33772886011298       -1.81573292454493
C           -0.69752106544700       -3.45600969709632       -2.27580522165332
C            0.69752106544700       -3.45600969709632       -2.27580522165332
H           -2.47672320084633       -2.33198425611387        1.81707515304807
H           -1.23953134231498       -4.31875373833059        2.63685703865411
H            1.23953134231498       -4.31875373833059        2.63685703865411
H            2.47672320084633       -2.33198425611387        1.81707515304807
H            2.43320867626217        0.00000000000000        1.11849829030884
H           -2.43320867626217        0.00000000000000        1.11849829030884
H           -2.47672320084633        2.33198425611387        1.81707515304807
H            2.47672320084633        2.33198425611387        1.81707515304807
H           -1.23953134231498        4.31875373833059        2.63685703865411
H            1.23953134231498        4.31875373833059        2.63685703865411
H           -2.47672320084633        2.33198425611387       -1.81707515304807
H           -1.23953134231498        4.31875373833059       -2.63685703865411
H            1.23953134231498        4.31875373833059       -2.63685703865411
H            2.47672320084633        2.33198425611387       -1.81707515304807
H            2.43320867626217        0.00000000000000       -1.11849829030884
H           -2.43320867626217        0.00000000000000       -1.11849829030884
H           -2.47672320084633       -2.33198425611387       -1.81707515304807
H            2.47672320084633       -2.33198425611387       -1.81707515304807
H           -1.23953134231498       -4.31875373833059       -2.63685703865411
H            1.23953134231498       -4.31875373833059       -2.63685703865411
